%Pal nprocs 20 end
%MaxCore 3000
! wb97x-d3 def2-TZVP def2/J def2-TZVP/C TightOpt RIJCOSX AnFreq AutoAux VERYTIGHTSCF VERYTIGHTOPT VerySlowConv MINIPRINT moread
%moinp "ga-w18-1-wb97xd3-freq.gbw"
%freq Temp 10
      Pressure 0.0000000000000000001
end
* xyz 0 1
H 1.159798 1.491313 -0.946869
O 0.854926 2.591706 0.311355
O 1.225042 0.465961 2.017823
O 3.035434 -1.589327 2.087115
O 0.588302 -2.894040 1.612656
O 3.982208 1.260555 -0.690537
O 4.828722 -1.214059 -0.094453
O 3.453053 -2.920358 -1.779195
O 1.167584 -1.763404 -0.884630
O 1.402258 0.862752 -1.671126
O -1.006929 0.997291 -2.857295
O -1.471438 -1.466198 -1.566293
O -3.493528 -3.093193 -0.841157
O -1.921417 2.140576 -0.386262
O -1.163558 -0.174746 0.802795
O -2.662335 -1.513675 2.651482
O -1.912547 -3.944650 1.431836
O -4.506858 1.483802 -0.030431
O -4.745203 -1.082961 0.814149
H -5.207971 1.964890 0.408215
H -4.596018 0.545564 0.254684
H -4.266240 -1.238050 1.641947
H -4.455075 -1.793071 0.220541
H -0.223393 -3.436226 1.491759
H 0.727376 -2.443533 0.759091
H -0.097180 2.761068 0.264179
H 0.990953 1.987657 1.064511
H -2.889669 2.059526 -0.237817
H -1.771155 1.910630 -1.316771
H -2.409299 -3.922919 0.601944
H -2.287570 -3.205417 1.943665
H -2.143915 -0.967301 2.023933
H -2.130937 -1.513891 3.457383
H -2.810207 -2.538734 -1.276353
H -3.942875 -3.587413 -1.527245
H -1.499427 -0.723553 -2.192889
H -1.384030 -1.038523 -0.682416
H -0.284171 -0.052764 1.219502
H -1.441839 0.711516 0.480187
H -0.055871 0.997522 -2.593979
H -1.061285 1.352856 -3.744805
H 3.719853 -1.597637 1.398502
H 2.463792 -2.352838 1.927844
H 3.690070 1.806864 0.111759
H 3.168901 1.154523 -1.252551
H 4.557580 -0.280414 -0.305433
H 5.777931 -1.204770 0.041347
H 1.890093 -2.277601 -1.301944
H 0.333774 -1.931381 -1.357564
H 3.752478 -2.865977 -2.687028
H 4.063547 -2.372525 -1.250732
H 1.929788 -0.212111 1.924422
H 1.097369 0.526894 2.980865
H 1.337342 -0.042467 -1.298660
C 1.632310 -0.724263 5.297188
O 1.564864 0.368533 4.800074
C 0.828755 -1.927067 4.878938
O -0.126435 -1.662622 3.906898
H 2.323008 -0.909968 6.144897
H 0.166459 -2.029119 3.043016
H 1.551022 -2.693028 4.563796
H 0.353505 -2.316287 5.790394
*
